LAMMPS (2 Aug 2023 - Update 1)
Loaded 1 plugins from /scicomp/builds/Rocky/8.7/Zen3/software/DeePMD/2.2.10-gpu/lib/deepmd_lmp
echo both

# Define variables
variable	temperature equal 300.0 # Target temperature in K
variable	tempDamp equal 0.1 # Relaxation time for thermostat in ps
variable        pressure equal 1. # Target pressure in bar
variable        pressureDamp equal 1.0 # Relaxation time for barostat in ps
variable	out_freq equal 100 # Output frequency in steps
variable        seed equal 745823 # Random seed for generating velocities

units		metal
atom_style	atomic
read_data      ./solid_supercell_3x3x3.data
Reading data file ...
  orthogonal box = (0 0 0) to (33.040276 33.040276 33.040276)
  reading atoms ...
  1728 atoms
mass 		1 28.0

timestep	0.001
neigh_modify    delay 10 every 1
pair_style      deepmd ./frozen_model_1_compressed.pb ./frozen_model_2_compressed.pb ./frozen_model_3_compressed.pb ./frozen_model_4_compressed.pb out_file md_solid.out out_freq 100
Summary of lammps deepmd module ...
  >>> Info of deepmd-kit:
  installed to:       /scicomp/builds/Rocky/8.7/Zen3/software/DeePMD/2.2.10-gpu
  source:             v2.2.10
  source branch:      HEAD
  source commit:      f8a0b3128
  source commit at:   2024-04-06 14:46:23 -0400
  support model ver.: 1.1
  build variant:      cuda
  build with tf inc:  /scicomp/builds/Rocky/8.7/Zen3/software/DeePMD/2.2.10-gpu/include;/scicomp/builds/Rocky/8.7/Zen3/software/DeePMD/2.2.10-gpu/include
  build with tf lib:  /scicomp/builds/Rocky/8.7/Zen3/software/DeePMD/2.2.10-gpu/lib/libtensorflow_cc.so
  set tf intra_op_parallelism_threads: 0
  set tf inter_op_parallelism_threads: 0
  >>> Info of lammps module:
  use deepmd-kit at:  /scicomp/builds/Rocky/8.7/Zen3/software/DeePMD/2.2.10-gpupair_coeff      * *
thermo          100
thermo_style 	custom step temp pe etotal epair emol press lx ly lz vol
restart 	100 restart.lmp restart2.lmp

# Production run in NPT
#
dump            myDump all atom 100 si_solid.lammps-dump-text

timer           timeout 00:55:00 every 1000
New timer settings: style=normal  mode=nosync  timeout=00:55:00

fix             thermo_print all print 100 "$(step) $(temp) $(press) $(enthalpy) $(vol)" file thermo_solid.txt screen no title "#step temp press enthalpy vol"
fix             1 all nph iso 1 1 1
fix             2 all temp/csvr 300 300 0.1 745823
fix             3 all momentum 10000 linear 1 1 1 rescale

velocity 	all create 300 745823 dist gaussian

run             100000 upto # 100 ps

CITE-CITE-CITE-CITE-CITE-CITE-CITE-CITE-CITE-CITE-CITE-CITE-CITE

Your simulation uses code contributions which should be cited:

- USER-DEEPMD package:

@article{Wang_ComputPhysCommun_2018_v228_p178,
  author = {Wang, Han and Zhang, Linfeng and Han, Jiequn and E, Weinan},
  doi = {10.1016/j.cpc.2018.03.016},
  url = {https://doi.org/10.1016/j.cpc.2018.03.016},
  year = 2018,
  month = {jul},
  publisher = {Elsevier {BV}},
  volume = 228,
  journal = {Comput. Phys. Commun.},
  title = {{DeePMD-kit: A deep learning package for many-body potential energy representation and molecular dynamics}},
  pages = {178--184}
}
@misc{Zeng_JChemPhys_2023_v159_p054801,
  title  = {{DeePMD-kit v2: A software package for deep potential models}},
  author =   {Jinzhe Zeng and Duo Zhang and Denghui Lu and Pinghui Mo and Zeyu Li
         and Yixiao Chen and Mari{\'a}n Rynik and Li'ang Huang and Ziyao Li and
         Shaochen Shi and Yingze Wang and Haotian Ye and Ping Tuo and Jiabin
         Yang and Ye Ding and Yifan Li and Davide Tisi and Qiyu Zeng and Han
         Bao and Yu Xia and Jiameng Huang and Koki Muraoka and Yibo Wang and
         Junhan Chang and Fengbo Yuan and Sigbj{\o}rn L{\o}land Bore and Chun
         Cai and Yinnian Lin and Bo Wang and Jiayan Xu and Jia-Xin Zhu and
         Chenxing Luo and Yuzhi Zhang and Rhys E A Goodall and Wenshuo Liang
         and Anurag Kumar Singh and Sikai Yao and Jingchao Zhang and Renata
         Wentzcovitch and Jiequn Han and Jie Liu and Weile Jia and Darrin M
         York and Weinan E and Roberto Car and Linfeng Zhang and Han Wang},
  journal =  {J. Chem. Phys.},
  volume =   159,
  issue =    5,
  year =    2023,
  pages  =   054801,
  doi =      {10.1063/5.0155600},
}

CITE-CITE-CITE-CITE-CITE-CITE-CITE-CITE-CITE-CITE-CITE-CITE-CITE

Generated 0 of 0 mixed pair_coeff terms from geometric mixing rule
Step          Temp          PotEng         TotEng         E_pair         E_mol          Press            Lx             Ly             Lz           Volume
0   300           -185070.88     -185003.91     -185070.88      0             -6228.5571      33.040276      33.040276      33.040276      36068.744
Averages over the last 501 of 1001 rows, steps 50000 to 100000:
Temp PotEng TotEng E_pair E_mol Press Lx Ly Lz Volume
300.444 -185079 -185012 -185079 0 3.42234 32.9709 32.9709 32.9709 35842.1
Loop time of 355.426 on 1 procs for 100000 steps with 1728 atoms

write_data	data_solid.final
System init for write_data ...
Generated 0 of 0 mixed pair_coeff terms from geometric mixing rule

write_restart   restart_solid.lmp
System init for write_restart ...
Generated 0 of 0 mixed pair_coeff terms from geometric mixing rule
